/*--------------------------------*- C++ -*----------------------------------*\
| =========                 |                                                 |
| \\      /  F ield         | OpenFOAM: The Open Source CFD Toolbox           |
|  \\    /   O peration     | Version:  v2412                                 |
|   \\  /    A nd           | Website:  www.openfoam.com                      |
|    \\/     M anipulation  |                                                 |
\*---------------------------------------------------------------------------*/
FoamFile
{
    version     2.0;
    format      ascii;
    class       volScalarField;
    object      p_rgh;
}
// * * * * * * * * * * * * * * * * * * * * * * * * * * * * * * * * * * * * * //

dimensions      [1 -1 -2 0 0 0 0];

internalField   uniform 0;

boundaryField
{
    walls
    {
        type            fixedFluxPressure;
        value           uniform 0;
    }

    frontAndBack
    {
        type            empty;
    }
    atmosphere
    {
        type    totalPressure;
        p0      uniform 0;
        rho     rho;
        psi     none;
        gamma   1;
        value   uniform 0;
    }
    airInlets
    {
        type            fixedFluxPressure;
        gradient        uniform 0;
        value           uniform 0;
    }
    waterInlets
    {
        type            fixedFluxPressure;
        gradient        uniform 0;
        value           uniform 0;
    }
    overflow
    {
        type    totalPressure;
        p0      uniform 0;
        rho     rho;
        psi     none;
        gamma   1;
        value   uniform 0;
    }
}


// ************************************************************************* //
